tests/data/generic-models/p1uhs23_1247/p1udt21301/PVDeployments/p1uhs23_1247__p1udt21301__random__2__15.dss
Redirect ../OpenDSS/Master.dss

// PV Scenario for 377.31348613163505 kW total size, Scenario type random, Sample 2 and penetration 15% (PV to load ratio) 
! =====================PV SCENARIO FILE==============================
New PVSystem.small_p1ulv10719_1_2_pv phases=1 bus1=p1ulv10719.1.2 kv=0.2402 irradiance=1 Pmpp=25.307 %Pmpp=100 kVA=25.307 conn=wye %cutin=0.1 %cutout=0.1 Vmaxpu=1.2 yearly=1565103_30.24_-97.47_2019
New PVSystem.small_p1ulv42994_1_2_pv phases=1 bus1=p1ulv42994.1.2 kv=0.2402 irradiance=1 Pmpp=31.574 %Pmpp=100 kVA=31.574 conn=wye %cutin=0.1 %cutout=0.1 Vmaxpu=1.2 yearly=1555384_30.34_-97.59_2019
New PVSystem.small_p1ulv46851_1_2_pv phases=1 bus1=p1ulv46851.1.2 kv=0.2402 irradiance=1 Pmpp=44.833 %Pmpp=100 kVA=44.833 conn=wye %cutin=0.1 %cutout=0.1 Vmaxpu=1.2 yearly=1566664_30.20_-97.45_2019
New PVSystem.small_p1ulv43666_1_2_pv phases=1 bus1=p1ulv43666.1.2 kv=0.2402 irradiance=1 Pmpp=18.465 %Pmpp=100 kVA=18.465 conn=wye %cutin=0.1 %cutout=0.1 Vmaxpu=1.2 yearly=1505552_30.22_-98.19_2019
New PVSystem.small_p1ulv3843_1_2_pv phases=1 bus1=p1ulv3843.1.2 kv=0.2402 irradiance=1 Pmpp=49.535 %Pmpp=100 kVA=49.535 conn=wye %cutin=0.1 %cutout=0.1 Vmaxpu=1.2 yearly=1560320_30.36_-97.53_2019
New PVSystem.small_p1ulv59768_1_2_pv phases=1 bus1=p1ulv59768.1.2 kv=0.2402 irradiance=1 Pmpp=22.217 %Pmpp=100 kVA=22.217 conn=wye %cutin=0.1 %cutout=0.1 Vmaxpu=1.2 yearly=1515489_30.24_-98.07_2019
New PVSystem.small_p1ulv8215_1_2_pv phases=1 bus1=p1ulv8215.1.2 kv=0.2402 irradiance=1 Pmpp=55.454 %Pmpp=100 kVA=55.454 conn=wye %cutin=0.1 %cutout=0.1 Vmaxpu=1.2 yearly=1552058_30.34_-97.63_2019
New PVSystem.small_p1ulv62924_1_2_pv phases=1 bus1=p1ulv62924.1.2 kv=0.2402 irradiance=1 Pmpp=41.439 %Pmpp=100 kVA=41.439 conn=wye %cutin=0.1 %cutout=0.1 Vmaxpu=1.2 yearly=1540423_30.22_-97.77_2019
New PVSystem.small_p1ulv31633_1_2_pv phases=1 bus1=p1ulv31633.1.2 kv=0.2402 irradiance=1 Pmpp=39.875 %Pmpp=100 kVA=39.875 conn=wye %cutin=0.1 %cutout=0.1 Vmaxpu=1.2 yearly=1561952_30.18_-97.51_2019
New PVSystem.small_p1ulv16326_1_2_pv phases=1 bus1=p1ulv16326.1.2 kv=0.2402 irradiance=1 Pmpp=20.882 %Pmpp=100 kVA=20.882 conn=wye %cutin=0.1 %cutout=0.1 Vmaxpu=1.2 yearly=1565103_30.24_-97.47_2019
New PVSystem.small_p1ulv47451_1_2_pv phases=1 bus1=p1ulv47451.1.2 kv=0.2402 irradiance=1 Pmpp=27.733 %Pmpp=100 kVA=27.733 conn=wye %cutin=0.1 %cutout=0.1 Vmaxpu=1.2 yearly=1538760_30.22_-97.79_2019

Solve mode=snapshot
